ucte/ucte-converter/test.uct
##C
##N
##ZBE
B_SU1_11 B_SU1_       0 0 0.0000 50.0000 0.00000 0.00000 0.00000
B_SU1_21 B_SU1_       0 2 225.00 0.00000 0.00000 100.000 0.00000                                                               F
##ZFR
FFICTI91 FICTIVE      1 0
F_SU1_11 F_SU1_       0 0 0.0000 50.0000 0.00000 0.00000 0.00000
F_SU1_12 F_SU1_       0 0 0.0000 50.0000 0.00000 0.00000 0.00000
F_SU1_21 F_SU1_       0 0 0.0000 0.00000 0.00000 0.00000 0.00000
F_SU1_31 F_SU1_       0 0 225.00 25.0000 10.0000 5.00000 2.00000                                                               F
F_SU2_11 F_SU2_       0 2 400.00 0.00000 0.00000 50.0000 0.00000                                                               F
##ZME
0AAAAA2  0AAAAA       0 0 0.0000 0.00000 0.00000 0.00000 0.00000
0BBBBB5  0AAAAA       0 2 115.00 0.00000 0.00000 -33.200 10.0000 0.00000 -300.00 10.0000 -40.000                               F
##ZXX
XB__F_11 B__F_        0 0 380.00 0.00000 0.00000
XB__F_21 B__F_        0 0 220.00 0.00000 0.00000
XG__F_21              0 0 220.00 50.0000 0.00000
##L
F_SU1_12 F_SU1_11 1 2                          5000
F_SU1_12 F_SU2_11 1 0 0.5500 1.6800 13.25000   5000
XB__F_11 B_SU1_11 1 0 0.5500 1.6800 13.25000   5000 
XB__F_11 F_SU1_11 1 0 0.5500 1.6800 13.25000   5000 
XB__F_21 B_SU1_21 1 0 0.5500 1.6800 13.25000   5000 
XB__F_21 F_SU1_21 1 0 0.5500 1.6800 13.25000   5000 
XG__F_21 F_SU1_21 1 1 0.5500 1.6800 13.25000   5000 XG__F_21 F_SU1_21 1
##T
0AAAAA2  0BBBBB5  1 1 110.0 220.0 100.0 0.2500 10.686 0.000000 0.0000    656 0BBBBB5  0AAAAA2  1
B_SU1_21 B_SU1_11 1 1 400.0 225.0 100.0 0.5500 1.6800 13.25000 0.0000   5000 B_SU1_11 B_SU1_21 1
F_SU1_11 FFICTI91 1 1 132.0 132.0 100.0 17.424 1.7424 573.9210 5739.2    100 3WT
F_SU1_21 FFICTI91 1 1 33.00 33.00 100.0 1.0890 0.1089 573.9210 5739.2    100 3WT
F_SU1_21 F_SU1_11 1 1 400.0 225.0 100.0 0.5500 1.6800 13.25000 0.0000   5000 F_SU1_11 F_SU1_21 1
F_SU1_31 FFICTI91 1 1 11.00 11.00 100.0 0.1210 0.0121 573.9210 5739.2    100 3WT
##R
0AAAAA2  0BBBBB5  1 2.000  7  -3
